
    !Phase change solid-liquid
    ! [/code]
    ! Compute transient solid liquid phase change with enthalpy formulation for Sn-0.7Cu
    !By: Julien Gilvernaud (2015-03-19) and Modification by Anil Kunwar (2016-06-02)

    Header
      CHECK KEYWORDS Warn
      Mesh DB "." "Mesh_1"
      Include Path ""
      Results Directory "."
    End

    Simulation
      Max Output Level = 5
      Coordinate System = Cartesian
      Coordinate Mapping(3) = 1 2 3
      Coordinate Scaling = 5.0e-2
      Simulation Type = Transient
      Steady State Max Iterations = 1
      Output Intervals = 20
      Timestep intervals = 400
      Timestep Sizes = 2
      Timestepping Method = BDF
      BDF Order = 2
      Solver Input File = case.sif
      Use Mesh Names = True
    End

    Constants
      Gravity(4) = 0 -1 0 9.82
      Stefan Boltzmann = 5.67e-08
      Permittivity of Vacuum = 8.8542e-12
      Boltzmann Constant = 1.3807e-23
      Unit Charge = 1.602e-19
    End

    Body 1
      !Target Bodies(1) = 2
      Name = "Liquid_Domain"
      Equation = 1
      Material = 2
      Body Force = 1
      Initial condition = 1
    End

    Body 2
      !Target Bodies(1) = 1
      Name = "Solid_Domain"
      Equation = 1
      Material = 2
      Body Force = 1
      Initial condition = 2
    End

    Solver 1
      Equation = Heat Equation
      Procedure = "HeatSolve" "HeatSolver"
      Calculate Loads = True
      Variable = Temperature
      Exec Solver = Always
      Stabilize = True
      Bubbles = False
      Lumped Mass Matrix = False
      Optimize Bandwidth = True
      Steady State Convergence Tolerance = 1.0e-5
      Nonlinear System Convergence Tolerance = 1.0e-7
      Nonlinear System Max Iterations = 20
      Nonlinear System Newton After Iterations = 3
      Nonlinear System Newton After Tolerance = 1.0e-3
      Nonlinear System Relaxation Factor = 1
      Linear System Solver = Iterative
      Linear System Iterative Method = BiCGStab
      Linear System Max Iterations = 500
      Linear System Convergence Tolerance = 1.0e-10
      Linear System Preconditioning = ILU0
      Linear System ILUT Tolerance = 1.0e-3
      Linear System Abort Not Converged = False
      Linear System Residual Output = 1
      Linear System Precondition Recompute = 1
    End

    Solver 2
      Equation = Navier-Stokes
      Variable = Flow Solution[Velocity:2 Pressure:1]
      Procedure = "FlowSolve" "FlowSolver"
      Calculate Loads = True
      Exec Solver = Always
      Stabilize = True
      Bubbles = False
      Lumped Mass Matrix = False
      Optimize Bandwidth = True
      Steady State Convergence Tolerance = 1.0e-5
      Nonlinear System Convergence Tolerance = 1.0e-7
      Nonlinear System Max Iterations = 20
      Nonlinear System Newton After Iterations = 3
      Nonlinear System Newton After Tolerance = 1.0e-3
      Nonlinear System Relaxation Factor = 1
      Linear System Solver = Iterative
      Linear System Iterative Method = BiCGStab
      Linear System Max Iterations = 500
      Linear System Convergence Tolerance = 1.0e-10
      Linear System Preconditioning = ILU0
      Linear System ILUT Tolerance = 1.0e-3
      Linear System Abort Not Converged = False
      Linear System Residual Output = 1
      Linear System Precondition Recompute = 1
    End

    Solver 3
      Equation = Result Output
      Save Geometry Ids = True
      !Output Format = Vtu
      Vtu Format = Logical True
      Procedure = "ResultOutputSolve" "ResultOutputSolver"
      Output File Name = Melting_front !comp_elmer_comsol
      Scalar Field 1 = Temperature loads
      Scalar Field 2 = Temperature
      Scalar Field 4 = Pressure
      Vector Field 1 = Velocity
      Single Precision = True
      Exec Solver = After saving
    End

    Equation 1
      Name = "Equation 1"
      Phase Change Model = Spatial 2
      Check Latent Heat Release = True
      Convection = Computed
      Navier-Stokes = True
      NS Convect = True
      Active Solvers(3) = 1 2 3
    End

    Material 2
      Name = "Liquid Sn"
      Reference Temperature = 298
      !!!!!!!!!!!!!!!!!table for the viscosity!!!!!!!!!!!!!!!!!!!!!!!!!!!!!!!!!!!!!!!!!!!!!!!!!!!!!!!!
      Viscosity = Variable Temperature
    Real
      include mu_sncu.dat
    End
      !!!!!!volume expansion coefficient for Boussinesq Approximation!!!!!!!!!!!!!!!!!!!!!!!!!!!!!!!!!
      Heat expansion Coefficient = 2.592e-4 !8.6412e-5
      !!!!!!!!!!!!!!!!!table for the enthalpy!!!!!!!!!!!!!!!!!!!!!!!!!!!!!!!!!!!!!!!!!!!!!!!!!!!!!!!!!
      Specific Enthalpy = Variable Temperature
    Real
      include specific_h_sn_cu.dat
    End
      Phase Change Intervals(2,1) = 500.0 503.0
      Compressibility Model = Incompressible
      Reference Pressure = 0
      !Reference Temperature = Real 298
      Specific Heat Ratio = 1.4
      !!!!!!!!!!!!!!UDF for Thermal Conductivity!!!!!!!!!!!!!!!!!!!!!!!!!!!!!!!!!!!!!!!!!!!!!!!!!!!!!!! 
      !Heat Conductivity = 73.2
      Heat Conductivity = Variable Temperature
      Procedure "geThermalConductivity" "getThermalConductivity"
      Melting Point Temperature = Real 500.0
      Reference Thermal Conductivity B = Real 88.9342
      Slope A = Real -0.0602857 
      Heat Capacity = 295
      !!!!!!!!!!!!!!!!!!!!!!User defined function for density!!!!!!!!!!!!!!!!!!!!!!!!!!!!!!!!!!!!!!!!!!!
      Density = 7093.926
      !Density as a function of temperature UDF
      !Density = Variable Temperature
      !Procedure "getDensity" "getDensity"
      !Reference Temperature = Real 298
      !Reference Density A = Real 7276.6
      !Slope B = Real -0.613
    End

    Body Force 1
      Name = "Natural convection"
      Boussinesq = True
    End

    Initial Condition 1
      Name = "InitialCondition 1"
      Velocity 2 = 0
      Pressure = 0
      Velocity 1 = 0
      Temperature = 510.00
    End

    Initial Condition 2
      Name = "InitialCondition 2"
      Velocity 2 = 0
      Pressure = 0
      Velocity 1 = 0
      Temperature = 495.00
    End

    Boundary Condition 1
      !Target Boundaries(1) = 1
      Name = "Eliquid_right"
      Temperature = 510.00
      Noslip wall BC = True
      Save Scalars = Logical True
    End

    Boundary Condition 2
      !Target Boundaries(1) = 3
      Name = "Eliquid_top"
      External Temperature = 404.00
      Heat Transfer Coefficient = 15
      Noslip wall BC = True
      Save Scalars = Logical True
    End

    Boundary Condition 3
      !Target Boundaries(1) = 6
      Name = "Esolid_top"
      External Temperature = 404.00
      Heat Transfer Coefficient = 15
      Noslip wall BC = True
      Save Scalars = Logical True
    End

    Boundary Condition 4
      !Target Boundaries(1) = 2
      Name = "Eliquid_bottom"
      Heat Flux = 0.0 !-10000
      Noslip wall BC = True
      Save Scalars = Logical True
    End

    Boundary Condition 5
      !Target Boundaries(1) = 5
      Name = "Esolid_bottom"
      Heat Flux = 0.0!-10000
      Noslip wall BC = True
      Save Scalars = Logical True
    End

    Boundary Condition 6
      !Target Boundaries(1) = 4
      Name = "Esolidliquid_interface"
      Save Scalars = Logical True
      Save Line = Logical True
    End

    Boundary Condition 7
      !Target Boundaries(1) = 7
      Name = "Esolid_left"
      Temperature = 495.00
      Noslip wall BC = True
      Save Scalars = Logical True
    End

