
    !Phase change solid-liquid
    ! [/code]
    ! Compute transient solid liquid phase change with enthalpy formulation for Sn3.5Ag0.7Cu
    !By: Peter Raback and Anil Kunwar (2016-10-03)

    Header
      CHECK KEYWORDS Warn
      Mesh DB "." "Mesh_1"
      !Mesh DB "." "Mesh_2"
      !Mesh DB "." "Mesh_3"
      !Mesh DB "." "Mesh_4"
      !Mesh DB "." "slab"
      Include Path ""
      Results Directory "."
    End

    Simulation
      Max Output Level = 5
      Coordinate System = Cartesian
      Coordinate Mapping(3) = 1 2 3
      Coordinate Scaling = 1.0e-2 !1.0e-4 !change this in accordance to the scale of geometry
      Simulation Type = Transient
      Steady State Max Iterations = 2 !2 !20 !500 !20
      Output Intervals (1) = 100  
      Timestep intervals (1) = 800 
      Timestep Sizes (1) = 2.5e-03 !2.50e-7 
      Timestepping Method = BDF
      BDF Order = 2
      Solver Input File = meshphasechange_lsenthalpy2.sif
      Post File = "a.vtu"
      Use Mesh Names = True
      ! Parameters for the TravellingHeatSource
      Heat Source Width = Real 2.5e-5 !m
      Heat Source Coefficient = Real 2.33333e9 !20 W if 1.40e9 is 30 W1.45e9 for (1.7143e-4////7 pairs working) !Diverges when it is 5.1e8 R, alpha and gaussian time factor constant
      Heat Source Speed = Real 1.5e-3 !90.0 mm/min
      Heat Source Distance = Real 4.0e-3
      Heat Source Initial Position = Real 0.0 !x-coordinate 2.0e-3
      y coordinate initial position = Real 0.0 !100 um
      !Pulse width = Real 2.0e-2 !20 ms
    End

    Constants
      Gravity(4) = 0 -1 0 9.82
      Stefan Boltzmann = 5.67e-08
      Permittivity of Vacuum = 8.8542e-12
      Boltzmann Constant = 1.3807e-23
      Unit Charge = 1.602e-19
    End

    Body 1
      !Target Bodies(1) = 2
      Name = "solder_volume" !UpperLiquid
      Equation = 1
      Material = 1
      Body Force = 1
      Initial condition = 1
    End

    !Body 2
      !Target Bodies(1) = 1
      !Name = " Face_solid"
      !Equation = 1
      !Material = 1
      !Body Force = 1
      !Initial condition = 2
    !End

    Solver 1
      Equation = Heat Equation
      Procedure = "HeatSolve" "HeatSolver"
      Calculate Loads = True
      Variable = Temperature
      Exec Solver = Always
      Stabilize = True
      Bubbles = False
      Lumped Mass Matrix = False
      Optimize Bandwidth = True
      Steady State Convergence Tolerance = 5.0e-7
      Nonlinear System Convergence Tolerance = 1.0e-7
      Nonlinear System Max Iterations = 20
      Nonlinear System Newton After Iterations = 3
      Nonlinear System Newton After Tolerance = 1.0e-3
      Nonlinear System Relaxation Factor = 1
      Linear System Solver = Iterative
      Linear System Iterative Method = BiCGStab !BiCGStabl
      BiCGstabl polynomial degree = 10
      Linear System Max Iterations = 500
      Linear System Convergence Tolerance = 1.0e-4 !1.0e-5 1.0e-10
      Linear System Preconditioning = ILU0
      Linear System ILUT Tolerance = 1.0e-3
      Linear System Abort Not Converged = False
      Linear System Residual Output = 1
      Linear System Precondition Recompute = 1
      !Linear System Solver = Direct
      !Linear System Direct Method = UMFPack
      !Steady State Convergence Tolerance = 1.0e-4
    End

    Solver 2
      Equation = Navier-Stokes
      Variable = Flow Solution[Velocity:3 Pressure:1]
      Procedure = "FlowSolve" "FlowSolver"
      Calculate Loads = True
      Exec Solver = Always
      Stabilize = True
      Bubbles = False
      Lumped Mass Matrix = False
      Optimize Bandwidth = True
      Steady State Convergence Tolerance = 5.0e-7
      Nonlinear System Convergence Tolerance = 1.0e-7 !1.0e-7
      Nonlinear System Max Iterations = 20
      Nonlinear System Newton After Iterations = 3
      Nonlinear System Newton After Tolerance = 1.0e-3
      Nonlinear System Relaxation Factor = 0.5 !1
      Linear System Solver = Iterative
      Linear System Iterative Method = BiCGStab !BiCGStabl
      !BiCGstabl polynomial degree = 10
      Linear System Max Iterations = 500
      Linear System Convergence Tolerance = 1.0e-3  !1.0e-10 1.0e-10 1.0e-3
      Linear System Preconditioning = ILU0
      Linear System ILUT Tolerance = 1.0e-3
      Linear System Abort Not Converged = False
      Linear System Residual Output = 1
      Linear System Precondition Recompute = 1
      !Linear System Solver = Direct
      !Linear System Direct Method = UMFPack
      !Steady State Convergence Tolerance = 1.0e-4
    End
    
Solver 3
      Equation = Advection Diffusion Equation
      Variable = -dofs 1 Concentration
      Procedure = "AdvectionDiffusion" "AdvectionDiffusionSolver"
      Exec Solver = Always
      Stabilize = True
      Bubbles = False
      Lumped Mass Matrix = False
      Optimize Bandwidth = True
      Steady State Convergence Tolerance = 1.0e-5
      Nonlinear System Convergence Tolerance = 1.0e-8
      Nonlinear System Max Iterations = 20
      Nonlinear System Newton After Iterations = 3
      Nonlinear System Newton After Tolerance = 1.0e-3
      Nonlinear System Relaxation Factor = 1
      !Linear System Solver = Direct
      !Linear System Direct Method = Umfpack
      !Linear System Convergence Tolerance =1.0E-10  !1.0E-10
      Linear System Solver = "Iterative"
      Linear System Iterative Method = "BiCGStabl"
      BiCgstabl Polynomial Degree = Integer 2
      Linear System Max Iterations = 500 !1000
      Linear System Convergence Tolerance = 1.0e-4  !1.0e-10 1.0e-7 1.0e-4  The LSCT of three solvers should be in similar range.
      Linear System Preconditioning = ILU0
      Linear System ILUT Tolerance = 1.0e-3
      Linear System Residual Output = 0
      Linear System Abort Not Converged = False
   End

    Solver 4
    Exec Solver = never
    Equation = SaveLine
    Procedure = "SaveData" "SaveLine"
    Filename = f.dat
    End

    !Solver 4
      !Equation = Result Output
      !Save Geometry Ids = True
      !Output Format = Vtu
      !Vtu Format = Logical True
      !Procedure = "ResultOutputSolve" "ResultOutputSolver"
      !Output File Name = Melting_front !comp_elmer_comsol
      !Scalar Field 1 = Temperature loads
      !Scalar Field 2 = Temperature
      !Scalar Field 4 = Pressure
      !Vector Field 1 = Velocity
      !Single Precision = True
      !Exec Solver = After saving
    !End

    Equation 1
      Name = "Equation 1"
      Phase Change Model = Spatial 2
      Check Latent Heat Release = True
      Convection = Computed
      Navier-Stokes = True
      NS Convect = True
      Active Solvers(3) = 1 2 3 !4
    End

    Material 1
      Name = "solder"
      Reference Temperature = 298
      !!!!!!!!!!!!!!!!!table for the viscosity!!!!!!!!!!!!!!!!!!!!!!!!!!!!!!!!!!!!!!!!!!!!!!!!!!!!!!!!
      Viscosity = Variable Temperature
    Real
      include mu_snagcu.dat
    End
      !!!!!!volume expansion coefficient for Boussinesq Approximation!!!!!!!!!!!!!!!!!!!!!!!!!!!!!!!!!
      Heat expansion Coefficient = 6.9e-5!length expansion coefficient (CTE) = 23.24e-6 H.M.Jin & p. Wu 2002
      !!!!!!!!!!!!!!!!!table for the enthalpy!!!!!!!!!!!!!!!!!!!!!!!!!!!!!!!!!!!!!!!!!!!!!!!!!!!!!!!!!
      Specific Enthalpy = Variable Temperature
    Real
      include specific_h_sn_ag_cu.dat
    End
      Phase Change Intervals(2,1) = 500.0 508.0
      Compressibility Model = Incompressible
      Reference Pressure = 0
      !Reference Temperature = Real 298
      Specific Heat Ratio = 1.4
      !!!!!!!!!!!!!!UDF for Thermal Conductivity!!!!!!!!!!!!!!!!!!!!!!!!!!!!!!!!!!!!!!!!!!!!!!!!!!!!!!! 
      !Heat Conductivity = 73.2
      Heat Conductivity = Variable Temperature
      Procedure "geThermalConductivity" "getThermalConductivity"
      Melting Point Temperature = Real 505.150
      Reference Thermal Conductivity B = Real 60.054 !88.9342 N. Aksoz et al. 2013
      Slope A = Real -0.009 !-0.0602857 
      Heat Capacity = 295
      !!!!!!!!!!!!!!!!!!!!!!User defined function for density!!!!!!!!!!!!!!!!!!!!!!!!!!!!!!!!!!!!!!!!!!!
      Density = 7093.926
      !Density as a function of temperature UDF
      !Density = Variable Temperature
      !Procedure "getDensity" "getDensity"
      !Reference Temperature = Real 298
      !Reference Density A = Real 7276.6
      !Slope B = Real -0.613
      Concentration Diffusivity = Variable Temperature  
      Real
      include diffusivity.dat
      End
    End

    Body Force 1
      Name = "Natural convection"
      Boussinesq = True
    End

    Initial Condition 1
      Name = "InitialCondition 1"
      Velocity 2 = 0
      Pressure = 0
      Velocity 1 = 0
      Temperature = 298.00
      Concentration = 0.0
    End

    !Initial Condition 2
      !Name = "InitialCondition 2"
      !Velocity 2 = 0
      !Pressure = 0
      !Velocity 1 = 0
      !Temperature = 298.00
    !End

    Boundary Condition 1
     Name = "leftFace rightFace"
     !Target Boundaries(1) = 4
      External Temperature = 404.00
      !Heat Transfer Coefficient = 15
      !Heat Transfer Coefficient = Variable Temperature
      !Real MATC "0.0024*pow(tx,1.61)"   !emissivity = 1.0
      Noslip wall BC = True
      Save Scalars = Logical True
    End

    Boundary Condition 2
     Name = "bottomFace"
     !Target Boundaries(1) = 4
      External Temperature = 298.00
      !Define interfacial heat transfer coefficient as h=at^m
      Heat Transfer Coefficient = Variable time !8000
      Real MATC "11500*pow(tx,-0.03)"
      Noslip wall BC = True
      Save Scalars = Logical True
      !Temperature = 298.0
      Concentration = 1.59e-3 !mol/cc
    End


    Boundary Condition 3
    Name = "topFace "
    !Target Boundaries(1) = 3
    Heat Flux = Variable time
    Real Procedure "RectilinearHeatSource" "TravellingHeatSource"
    Save Line = True
    Concentration = 0.0000 !mol/cc
    End

  
