!echo on
!The thermal conductivity tensor is varied along the coordinate length.

Header
  CHECK KEYWORDS Warn
  Mesh DB "." "Mesh_1"
  Include Path ""
  Results Directory ""
End

Simulation
  Max Output Level = 3
  Coordinate System = "Cartesian 3D"
  Coordinate Mapping(3) = 1 2 3
  Coordinate Scaling = 1.0

  Simulation Type = "Steady State"
  Steady State Max Iterations = 59
  Output Intervals = 1
  !Timestep Size =100
  !Timestep Intervals =10

 Output File = "TempDist.dat"
 Post File = "TempDist.vtu"
 !Coordinate Scaling=1.0e-6
 Use Mesh Names = True
 !lambda = 34.2 !W/m K
 !beta = 1.0 !betal = b/2*pi
End

 Constants
      Gravity(4) = 0 -1 0 9.82
      Stefan Boltzmann = 5.67e-08
      Permittivity of Vacuum = 8.8542e-12
      Boltzmann Constant = 1.3807e-23
      Unit Charge = 1.602e-19
 End

Body 1
  Name = "Extrusion_1"

  !Body Force = 1
  Equation = 1
  Material = 1
  Initial Condition = 1
End

Equation 1
  Name = "Equation1"
  Active Solvers (1) = 1 
End

Solver 1
  Equation = HeatEq
  Procedure = "HeatSolve" "HeatSolver"
  Variable = Temperature

  Linear System Solver = Iterative
  Linear System Iterative Method = BiCGStabl
!  BiCgstabl Polynomial Degree = 4
  Linear System Preconditioning = ILU1
  Linear System Max Iterations = 500
  Linear System Convergence Tolerance = 1.0e-9
  Linear System Residual Output = 10
  Nonlinear System Max Iterations = 1
  Nonlinear System Convergence Tolerance = 1.0e-07
  Nonlinear System Newton After Iterations = 3
  Nonlinear System Newton After Tolerance = 1.0e-12
  Nonlinear System Relaxation Factor = 0.5
  Steady State Convergence Tolerance = 1.0e-05
End

!$sum= (tx(0)*tx(0)+tx(1)*tx(1))
!$z=0.0
!$k=34.2
!$o=-2.0 !1.0
!$p=17.1 !k*0
!$q=-17.1 !q=-p
!$a=0.001
$function  test(x) {z=0.0;k=34.2;o=0.01; _test= k z (k*o*x(1)/(x(0)*x(0)+x(1)*x(1)+0.00005)) z k (-k*o*x(0)/(x(0)*x(0)+x(1)*x(1)+0.00005)) (k*o*x(1)/(x(0)*x(0)+x(1)*x(1)+0.00005)) (-k*o*x(0)/(x(0)*x(0)+x(1)*x(1)+0.00005)) (k*(1.0+o*o/(x(0)*x(0)+x(1)*x(1)+0.00005))) }

Material 1
  Name = "Material1"
  !Electric Conductivity = 5.7143e6 !resistivity = 17.5 micro ohm-cm 
  ! http://www.metallurgy.nist.gov/mechanical_properties/solder_paper.html
  Density =  8370  !8.37 gm/cc 
  !Heat Conductivity = 34.2 !0.342 W/cm K
  !Heat conductivity(3,3) = Real 34.2 0.0 136.8 0.0 34.2 -136.8 136.8 -136.8 581.4 !beta/r = 4
  !Heat conductivity(3,3) = Real 34.2 0.0 -547.2 0.0 34.2 547.2 -547.2 547.2 -8789.4 !beta/r = -16
  !Heat conductivity(3,3) = Real 34.2 0.0 51.3 0.0 34.2 -51.3 51.3 -51.3 42.75 !beta/r = 0.5
  !Heat conductivity(3,3) = Real 34.2 0.0 34.2 0.0 34.2 -34.2 34.2 -34.2 171 !beta/r = 1.0
  !Heat conductivity(3,3) = Real 34.2 0.0 0.0 0.0 34.2 0.0 0.0 0.0 171.0 !beta/r = 1.0
  Heat conductivity(3,3) = Variable Coordinate 1, Coordinate 2
  Real MATC "test(tx)"
   !Heat Conductivity(3,3)=Variable Time
                        !Real Procedure "GetThermalConductivityTensor" "getConductivity"

End

Initial Condition 1
  Temperature = 0.0
End

!Body Force 1
  !Name = "BodyForce1"
  !Joule Heat = Logical True
  !Heat Source = Variable Time
  !Real MATC " 0.0 - 40.0*tx"
!End

Boundary Condition 1
  Name = "Face_2left"
  !Target Boundaries(1) = 3 
  Temperature = 1.0
End



Boundary Condition 2
  Name = "Face_7right"
  !Target Boundaries(1) = 3 
  Temperature = 0.0
End

!End Of File
