! Can model in steady state for 2D mesh and Coarse 3D mesh
! Transient simulation with porous flow in 3D results in segmentation fault
! Transient simulation w/o pporous flow in 3D results in fewer simulation run without fault and then results into fault
! For simpler simulation , please utilize Elmer 
! Especially for optimization results

Header
  CHECK KEYWORDS Warn
  !Mesh DB "." "Mesh_1"
  Mesh DB "." "Mesh_2"
  Include Path ""
  Results Directory ""
End

Simulation
  Max Output Level = 8 ! add some verbosity
  Coordinate System = Cartesian
  Coordinate Mapping(3) = 1 2 3
  Simulation Type = Transient !Steady State !
  Steady State Max Iterations = 1
  Output Intervals = 1
  Timestepping Method = BDF
  BDF Order = 2
  !BDF Order = 1
  Timestep intervals (1) = 20  !100
  Timestep Sizes (1) = 1.0e-6  !5
  Solver Input File = case.sif

  Post File = case.vtu ! for paraview
!  Post File = case.ep ! for ElmerPost
  Coordinate Scaling = 0.001

! the initial mesh was so coarse that I multiplied it with 2^2
! It would be better to mesh in Gmsh for the accuracy.
  !Mesh Levels = 1 
  Use Mesh Names = True
End

Constants
  Gravity(4) = 0 0 0 9.82
  Stefan Boltzmann = 5.67e-08
  Permittivity of Vacuum = 8.8542e-12
  Boltzmann Constant = 1.3807e-23
  Unit Charge = 1.602e-19
End

Body 1
  Target Bodies(1) = 1
  Name = "VitreousVolume"
  Equation = 1
  Material = 1
  Initial condition = 1
End


! Navier-Stokes for the Darcy flow is a total overkill.
! However, no particular reason why not to use it for 
! small problems as they are quick to compute anyway.
Solver 1
  Equation = Navier-Stokes
  Variable = Flow Solution[Velocity:2 Pressure:1]
  Procedure = "FlowSolve" "FlowSolver"
  Exec Solver = Always
  Stabilize = False ! choose either stabilize of bubbles
  Bubbles = True
  Lumped Mass Matrix = False
  Optimize Bandwidth = True
  Steady State Convergence Tolerance = 1.0e-5
  Nonlinear System Convergence Tolerance = 1.0e-6
  Nonlinear System Max Iterations = 20
  Nonlinear System Newton After Iterations = 3
  Nonlinear System Newton After Tolerance = 1.0e-3
  Nonlinear System Relaxation Factor = 1
  Linear System Solver = Iterative
  Linear System Iterative Method = BiCGStab
  Linear System Max Iterations = 500
  Linear System Convergence Tolerance = 1.0e-10
  Linear System Preconditioning = ILU0
  Linear System ILUT Tolerance = 1.0e-3
  Linear System Abort Not Converged = False
  Linear System Residual Output = 0
  Linear System Precondition Recompute = 1
End

Solver 2
  Equation = Advection Diffusion Equation
  Variable = -dofs 1 Concentration
  Procedure = "AdvectionDiffusion" "AdvectionDiffusionSolver"
  Exec Solver = Always
  Stabilize = True
  Bubbles = False
  Lumped Mass Matrix = False
  Optimize Bandwidth = True
  Steady State Convergence Tolerance = 1.0e-5

! Nonlinear system tolerance should always be sloppier than
! linear system tolerance.
  Nonlinear System Convergence Tolerance = 1.0e-6
  Nonlinear System Max Iterations = 20
  Nonlinear System Newton After Iterations = 3
  Nonlinear System Newton After Tolerance = 1.0e-3
  Nonlinear System Relaxation Factor = 1
  Linear System Solver = Iterative
  Linear System Iterative Method = BiCGStab
  Linear System Max Iterations = 500
  Linear System Convergence Tolerance = 1.0e-10
  Linear System Preconditioning = ILU0
  Linear System ILUT Tolerance = 1.0e-3
  Linear System Abort Not Converged = False
  Linear System Residual Output = 0
  Linear System Precondition Recompute = 1
End

Equation 1
  Name = "N-S and Diffusion"
  Concentration Units = Absolute Mass

! I commented this away for time being as it 
! makes the computed concentration field unusable. 
! One should first make the velocity ok, and then start using it. 
!  Concentration Convection = Computed
  Active Solvers(2) = 1 2
End

Material 1
  Name = "VitreousVolume"
  Concentration Diffusivity = 5e-10 !1e-11

! The viscosity does not play much role here if the "Porous Resistivity" 
! is large. So I tuned it a little to make life easier. 
! Velocity field is still crap because of the BCs.
  Viscosity = 3.0e-2 !$100*7e-4 
  Compressibility Model = Incompressible
  Density = 1000
  !Porous Media = Logical True
  !Porous Resistivity(3) = Real 1.7e10 1.7e10 1.7e10 !1.7e10
End

Initial Condition 1
  Name = "[Vitreous] Initial"
  Concentration = 1.0e-3
End

Boundary Condition 1
  Target Boundaries(1) = 2
  Name = "Lens"
  Noslip wall BC = True
  
  Concentration Flux = 0
End 

Boundary Condition 2
  Target Boundaries(1) = 3 !6
  Name = "Retina"

! Not neede as the no Dirichlet conditions for velocity
  Normal-Tangential Velocity = True
  Velocity 1 = 0
  Velocity 2 = 0
  Velocity 3 = 0 

! With this BC there is a bad singularity in the corner which 
! makes the velocity quite unusable. The velocity problem should
! be totally rethought as there really cannot be flow across the eye
! unless it is vaporized on the surface?
  !External Pressure = 2000 

! Here this might be Ract+Kc from formula (8)
! Would this be valid only where you inject the stuff, or also generally
! Here it is assumed to be generally which of course keeps the concentration
! bounded. 
  Mass Transfer Coefficient = 0.1

! With this model only a small lower piece gets >0 external concentration
! Value 3.5 seemed to be given at some figures so I took that as the 
! external concentration...
  External Concentration = Real 0
   !Variable Coordinate 2
    !Real
     ! -1.0       3.5
     ! -0.012     3.5
     ! -0.012001  0.0
     !  1.0       0.0
    !End 
End

Boundary Condition 3
  Target Boundaries(1) = 1
  Name = "Hyaloid"
  Concentration Flux = 1.0e-3

  External Pressure = 1300
  !Velocity 1 = 1.8e-2
  !Velocity 2 = 1.8e-2
  !Velocity 3 = 1.8e-2
End
